<?xml version="1.0" encoding="UTF-8"?>
<routes>
    <vType id="car_main" accel="2.6" decel="4.5" sigma="0.3" length="4.8" minGap="2.5" maxSpeed="33.33"/>
    <vType id="car_ramp" accel="2.2" decel="4.5" sigma="0.35" length="4.8" minGap="2.5" maxSpeed="25.0"/>

    <route id="route_main" edges="main_in main_out"/>
    <route id="route_ramp" edges="ramp_in main_out"/>

    <flow id="main_flow_left" type="car_main" route="route_main" begin="0" end="3600" vehsPerHour="700" departLane="2" departSpeed="max"/>
    <flow id="main_flow_mid" type="car_main" route="route_main" begin="0" end="3600" vehsPerHour="900" departLane="1" departSpeed="max"/>
    <flow id="main_flow_right" type="car_main" route="route_main" begin="0" end="3600" vehsPerHour="850" departLane="0" departSpeed="max"/>

    <flow id="ramp_flow" type="car_ramp" route="route_ramp" begin="0" end="3600" vehsPerHour="450" departLane="0" departSpeed="max"/>
</routes>
