<?xml version="1.0" encoding="UTF-8"?>
<nodes>
    <node id="main_start" x="-400.0" y="0.0" type="priority"/>
    <node id="merge" x="0.0" y="0.0" type="priority"/>
    <node id="main_end" x="700.0" y="0.0" type="priority"/>
    <node id="ramp_start" x="-220.0" y="70.0" type="priority"/>
</nodes>
